<?xml version="1.0" encoding="utf-8"?>
<!DOCTYPE population SYSTEM "http://www.matsim.org/files/dtd/population_v6.dtd">

<population>



<!-- ====================================================================== -->

	<person id="Munich City-Munich City_1">
		<plan selected="yes">
			<activity type="home" x="4472354.884004426" y="5325214.151446741" end_time="09:35:30" >
			</activity>
			<leg mode="car">
			</leg>
			<activity type="work" x="4478231.389968209" y="5340939.970497492" max_dur="08:05:08" >
			</activity>
			<leg mode="car">
			</leg>
			<activity type="home" x="4472354.884004426" y="5325214.151446741" >
			</activity>
		</plan>

	</person>

<!-- ====================================================================== -->

	<person id="Munich City-Munich City_10">
		<plan selected="yes">
			<activity type="home" x="4478748.806065383" y="5339149.320202405" end_time="09:53:24" >
			</activity>
			<leg mode="car">
			</leg>
			<activity type="work" x="4473283.787356758" y="5338351.064533504" max_dur="08:08:53" >
			</activity>
			<leg mode="car">
			</leg>
			<activity type="home" x="4478748.806065383" y="5339149.320202405" >
			</activity>
		</plan>

	</person>

<!-- ====================================================================== -->

	<person id="Munich City-Munich City_100">
		<plan selected="yes">
			<activity type="home" x="4475437.591777289" y="5342328.345501581" end_time="09:43:53" >
			</activity>
			<leg mode="car">
			</leg>
			<activity type="work" x="4461488.699549908" y="5326408.356606651" max_dur="08:37:22" >
			</activity>
			<leg mode="car">
			</leg>
			<activity type="home" x="4475437.591777289" y="5342328.345501581" >
			</activity>
		</plan>

	</person>

<!-- ====================================================================== -->

	<person id="Munich City-Munich City_1000">
		<plan selected="yes">
			<activity type="home" x="4475197.635758547" y="5340220.611192648" end_time="09:33:58" >
			</activity>
			<leg mode="car">
			</leg>
			<activity type="work" x="4474702.806999195" y="5325021.772417161" max_dur="08:24:54" >
			</activity>
			<leg mode="car">
			</leg>
			<activity type="home" x="4475197.635758547" y="5340220.611192648" >
			</activity>
		</plan>

	</person>

<!-- ====================================================================== -->

	<person id="Munich City-Munich City_1001">
		<plan selected="yes">
			<activity type="home" x="4452801.737958565" y="5334122.989601931" end_time="09:49:37" >
			</activity>
			<leg mode="car">
			</leg>
			<activity type="work" x="4470194.550525899" y="5326509.530156864" max_dur="08:37:08" >
			</activity>
			<leg mode="car">
			</leg>
			<activity type="home" x="4452801.737958565" y="5334122.989601931" >
			</activity>
		</plan>

	</person>

<!-- ====================================================================== -->

	<person id="Munich City-Munich City_1002">
		<plan selected="yes">
			<activity type="home" x="4470217.824651823" y="5343188.292803369" end_time="09:22:49" >
			</activity>
			<leg mode="car">
			</leg>
			<activity type="work" x="4469000.462004674" y="5327528.23211799" max_dur="08:14:52" >
			</activity>
			<leg mode="car">
			</leg>
			<activity type="home" x="4470217.824651823" y="5343188.292803369" >
			</activity>
		</plan>

	</person>

<!-- ====================================================================== -->

	<person id="Munich City-Munich City_1003">
		<plan selected="yes">
			<activity type="home" x="4457087.658260972" y="5330121.2743669925" end_time="09:23:56" >
			</activity>
			<leg mode="car">
			</leg>
			<activity type="work" x="4479288.756301725" y="5344285.4006781075" max_dur="08:39:34" >
			</activity>
			<leg mode="car">
			</leg>
			<activity type="home" x="4457087.658260972" y="5330121.2743669925" >
			</activity>
		</plan>

	</person>

<!-- ====================================================================== -->

	<person id="Munich City-Munich City_1004">
		<plan selected="yes">
			<activity type="home" x="4458658.727641602" y="5331063.976376831" end_time="09:09:53" >
			</activity>
			<leg mode="car">
			</leg>
			<activity type="work" x="4458439.331840394" y="5329418.104971113" max_dur="08:02:25" >
			</activity>
			<leg mode="car">
			</leg>
			<activity type="home" x="4458658.727641602" y="5331063.976376831" >
			</activity>
		</plan>

	</person>

<!-- ====================================================================== -->

	<person id="Munich City-Munich City_1005">
		<plan selected="yes">
			<activity type="home" x="4468267.136687235" y="5345570.682845895" end_time="09:26:00" >
			</activity>
			<leg mode="car">
			</leg>
			<activity type="work" x="4475860.447498718" y="5338500.541527581" max_dur="08:58:46" >
			</activity>
			<leg mode="car">
			</leg>
			<activity type="home" x="4468267.136687235" y="5345570.682845895" >
			</activity>
		</plan>

	</person>

<!-- ====================================================================== -->

	<person id="Munich City-Munich City_1006">
		<plan selected="yes">
			<activity type="home" x="4474170.9734501755" y="5339525.154079685" end_time="09:41:12" >
			</activity>
			<leg mode="car">
			</leg>
			<activity type="work" x="4473956.325594447" y="5337878.695402004" max_dur="08:24:55" >
			</activity>
			<leg mode="car">
			</leg>
			<activity type="home" x="4474170.9734501755" y="5339525.154079685" >
			</activity>
		</plan>

	</person>

<!-- ====================================================================== -->

	<person id="Munich City-Munich City_1007">
		<plan selected="yes">
			<activity type="home" x="4452642.678521329" y="5326694.744516693" end_time="09:21:48" >
			</activity>
			<leg mode="car">
			</leg>
			<activity type="work" x="4456123.331890022" y="5344581.507899281" max_dur="08:04:35" >
			</activity>
			<leg mode="car">
			</leg>
			<activity type="home" x="4452642.678521329" y="5326694.744516693" >
			</activity>
		</plan>

	</person>

<!-- ====================================================================== -->

	<person id="Munich City-Munich City_1008">
		<plan selected="yes">
			<activity type="home" x="4469429.373013493" y="5344554.702427826" end_time="09:45:48" >
			</activity>
			<leg mode="car">
			</leg>
			<activity type="work" x="4462394.683222352" y="5325746.918513256" max_dur="08:14:34" >
			</activity>
			<leg mode="car">
			</leg>
			<activity type="home" x="4469429.373013493" y="5344554.702427826" >
			</activity>
		</plan>

	</person>

<!-- ====================================================================== -->

	<person id="Munich City-Munich City_1009">
		<plan selected="yes">
			<activity type="home" x="4468977.292052965" y="5345274.167399461" end_time="09:01:01" >
			</activity>
			<leg mode="car">
			</leg>
			<activity type="work" x="4452869.830860533" y="5335000.088028567" max_dur="08:56:42" >
			</activity>
			<leg mode="car">
			</leg>
			<activity type="home" x="4468977.292052965" y="5345274.167399461" >
			</activity>
		</plan>

	</person>

<!-- ====================================================================== -->

	<person id="Munich City-Munich City_101">
		<plan selected="yes">
			<activity type="home" x="4479093.082598114" y="5342804.393806445" end_time="09:33:41" >
			</activity>
			<leg mode="car">
			</leg>
			<activity type="work" x="4458246.6514717275" y="5341552.763629002" max_dur="08:34:53" >
			</activity>
			<leg mode="car">
			</leg>
			<activity type="home" x="4479093.082598114" y="5342804.393806445" >
			</activity>
		</plan>

	</person>

<!-- ====================================================================== -->

	<person id="Munich City-Munich City_1010">
		<plan selected="yes">
			<activity type="home" x="4455673.967505767" y="5342813.614257701" end_time="09:13:09" >
			</activity>
			<leg mode="car">
			</leg>
			<activity type="work" x="4458438.594413086" y="5342737.503525535" max_dur="08:00:48" >
			</activity>
			<leg mode="car">
			</leg>
			<activity type="home" x="4455673.967505767" y="5342813.614257701" >
			</activity>
		</plan>

	</person>

<!-- ====================================================================== -->

	<person id="Munich City-Munich City_1011">
		<plan selected="yes">
			<activity type="home" x="4452586.679462006" y="5331199.871832327" end_time="09:59:32" >
			</activity>
			<leg mode="car">
			</leg>
			<activity type="work" x="4460144.853302785" y="5325563.186235509" max_dur="08:12:27" >
			</activity>
			<leg mode="car">
			</leg>
			<activity type="home" x="4452586.679462006" y="5331199.871832327" >
			</activity>
		</plan>

	</person>

<!-- ====================================================================== -->

	<person id="Munich City-Munich City_1012">
		<plan selected="yes">
			<activity type="home" x="4458025.135150026" y="5342654.013565164" end_time="09:32:50" >
			</activity>
			<leg mode="car">
			</leg>
			<activity type="work" x="4459626.489958292" y="5332741.889953611" max_dur="08:57:51" >
			</activity>
			<leg mode="car">
			</leg>
			<activity type="home" x="4458025.135150026" y="5342654.013565164" >
			</activity>
		</plan>

	</person>

<!-- ====================================================================== -->

	<person id="Munich City-Munich City_1013">
		<plan selected="yes">
			<activity type="home" x="4478517.103694133" y="5335089.627596756" end_time="09:01:05" >
			</activity>
			<leg mode="car">
			</leg>
			<activity type="work" x="4474426.608685214" y="5341186.515644936" max_dur="08:36:49" >
			</activity>
			<leg mode="car">
			</leg>
			<activity type="home" x="4478517.103694133" y="5335089.627596756" >
			</activity>
		</plan>

	</person>

<!-- ====================================================================== -->

	<person id="Munich City-Munich City_1014">
		<plan selected="yes">
			<activity type="home" x="4477970.265299548" y="5337611.516197716" end_time="09:52:52" >
			</activity>
			<leg mode="car">
			</leg>
			<activity type="work" x="4453250.107584193" y="5327928.911423312" max_dur="08:45:49" >
			</activity>
			<leg mode="car">
			</leg>
			<activity type="home" x="4477970.265299548" y="5337611.516197716" >
			</activity>
		</plan>

	</person>

<!-- ====================================================================== -->

	<person id="Munich City-Munich City_1015">
		<plan selected="yes">
			<activity type="home" x="4454779.796656521" y="5328589.153933085" end_time="09:41:26" >
			</activity>
			<leg mode="car">
			</leg>
			<activity type="work" x="4472572.168045234" y="5344276.0236673495" max_dur="08:27:56" >
			</activity>
			<leg mode="car">
			</leg>
			<activity type="home" x="4454779.796656521" y="5328589.153933085" >
			</activity>
		</plan>

	</person>

<!-- ====================================================================== -->

	<person id="Munich City-Munich City_1016">
		<plan selected="yes">
			<activity type="home" x="4456894.7855626745" y="5330987.640500431" end_time="09:54:14" >
			</activity>
			<leg mode="car">
			</leg>
			<activity type="work" x="4476226.666741276" y="5344750.234715763" max_dur="08:49:00" >
			</activity>
			<leg mode="car">
			</leg>
			<activity type="home" x="4456894.7855626745" y="5330987.640500431" >
			</activity>
		</plan>

	</person>

<!-- ====================================================================== -->

	<person id="Munich City-Munich City_1017">
		<plan selected="yes">
			<activity type="home" x="4475435.0462792255" y="5339041.466882994" end_time="09:00:45" >
			</activity>
			<leg mode="car">
			</leg>
			<activity type="work" x="4475744.707232902" y="5340726.858545158" max_dur="08:24:20" >
			</activity>
			<leg mode="car">
			</leg>
			<activity type="home" x="4475435.0462792255" y="5339041.466882994" >
			</activity>
		</plan>

	</person>

<!-- ====================================================================== -->

	<person id="Munich City-Munich City_1018">
		<plan selected="yes">
			<activity type="home" x="4472976.34120697" y="5325347.073887262" end_time="09:36:50" >
			</activity>
			<leg mode="car">
			</leg>
			<activity type="work" x="4475683.994606727" y="5325554.603701926" max_dur="08:00:51" >
			</activity>
			<leg mode="car">
			</leg>
			<activity type="home" x="4472976.34120697" y="5325347.073887262" >
			</activity>
		</plan>

	</person>

<!-- ====================================================================== -->

	<person id="Munich City-Munich City_1019">
		<plan selected="yes">
			<activity type="home" x="4462204.533615034" y="5325171.511026717" end_time="09:58:41" >
			</activity>
			<leg mode="car">
			</leg>
			<activity type="work" x="4476526.050470035" y="5340614.512068273" max_dur="08:55:24" >
			</activity>
			<leg mode="car">
			</leg>
			<activity type="home" x="4462204.533615034" y="5325171.511026717" >
			</activity>
		</plan>

	</person>

<!-- ====================================================================== -->

	<person id="Munich City-Munich City_102">
		<plan selected="yes">
			<activity type="home" x="4458095.930658745" y="5332700.990185517" end_time="09:18:20" >
			</activity>
			<leg mode="car">
			</leg>
			<activity type="work" x="4455275.641569008" y="5343117.509984376" max_dur="08:20:26" >
			</activity>
			<leg mode="car">
			</leg>
			<activity type="home" x="4458095.930658745" y="5332700.990185517" >
			</activity>
		</plan>

	</person>

<!-- ====================================================================== -->

	<person id="Munich City-Munich City_1020">
		<plan selected="yes">
			<activity type="home" x="4454973.579886089" y="5332220.262505216" end_time="09:27:15" >
			</activity>
			<leg mode="car">
			</leg>
			<activity type="work" x="4454133.1543095475" y="5334511.693554694" max_dur="08:04:11" >
			</activity>
			<leg mode="car">
			</leg>
			<activity type="home" x="4454973.579886089" y="5332220.262505216" >
			</activity>
		</plan>

	</person>

<!-- ====================================================================== -->

	<person id="Munich City-Munich City_1021">
		<plan selected="yes">
			<activity type="home" x="4459919.268041282" y="5343896.273393852" end_time="09:01:56" >
			</activity>
			<leg mode="car">
			</leg>
			<activity type="work" x="4471545.904666615" y="5343581.035866433" max_dur="08:52:38" >
			</activity>
			<leg mode="car">
			</leg>
			<activity type="home" x="4459919.268041282" y="5343896.273393852" >
			</activity>
		</plan>

	</person>

<!-- ====================================================================== -->

	<person id="Munich City-Munich City_1022">
		<plan selected="yes">
			<activity type="home" x="4478353.37140629" y="5326675.816732058" end_time="09:09:35" >
			</activity>
			<leg mode="car">
			</leg>
			<activity type="work" x="4455289.772923717" y="5341581.610860304" max_dur="08:24:33" >
			</activity>
			<leg mode="car">
			</leg>
			<activity type="home" x="4478353.37140629" y="5326675.816732058" >
			</activity>
		</plan>

	</person>

<!-- ====================================================================== -->

	<person id="Munich City-Munich City_1023">
		<plan selected="yes">
			<activity type="home" x="4478064.135697234" y="5344495.449772666" end_time="09:37:15" >
			</activity>
			<leg mode="car">
			</leg>
			<activity type="work" x="4459775.817814892" y="5326624.856695322" max_dur="08:18:58" >
			</activity>
			<leg mode="car">
			</leg>
			<activity type="home" x="4478064.135697234" y="5344495.449772666" >
			</activity>
		</plan>

	</person>

<!-- ====================================================================== -->

	<person id="Munich City-Munich City_1024">
		<plan selected="yes">
			<activity type="home" x="4478686.497043413" y="5328973.183991319" end_time="09:50:10" >
			</activity>
			<leg mode="car">
			</leg>
			<activity type="work" x="4475996.641354924" y="5326297.460761028" max_dur="08:57:33" >
			</activity>
			<leg mode="car">
			</leg>
			<activity type="home" x="4478686.497043413" y="5328973.183991319" >
			</activity>
		</plan>

	</person>

<!-- ====================================================================== -->

	<person id="Munich City-Munich City_1025">
		<plan selected="yes">
			<activity type="home" x="4472988.61153544" y="5326712.742210365" end_time="09:11:29" >
			</activity>
			<leg mode="car">
			</leg>
			<activity type="work" x="4479490.120431391" y="5337444.141144358" max_dur="08:52:47" >
			</activity>
			<leg mode="car">
			</leg>
			<activity type="home" x="4472988.61153544" y="5326712.742210365" >
			</activity>
		</plan>

	</person>

<!-- ====================================================================== -->

	<person id="Munich City-Munich City_1026">
		<plan selected="yes">
			<activity type="home" x="4478459.252145877" y="5327317.249279522" end_time="09:11:15" >
			</activity>
			<leg mode="car">
			</leg>
			<activity type="work" x="4472408.906137604" y="5343937.622158825" max_dur="08:04:19" >
			</activity>
			<leg mode="car">
			</leg>
			<activity type="home" x="4478459.252145877" y="5327317.249279522" >
			</activity>
		</plan>

	</person>

<!-- ====================================================================== -->

	<person id="Munich City-Munich City_1027">
		<plan selected="yes">
			<activity type="home" x="4457170.212024116" y="5344063.97864684" end_time="09:57:36" >
			</activity>
			<leg mode="car">
			</leg>
			<activity type="work" x="4469946.819969894" y="5325178.054342519" max_dur="08:06:38" >
			</activity>
			<leg mode="car">
			</leg>
			<activity type="home" x="4457170.212024116" y="5344063.97864684" >
			</activity>
		</plan>

	</person>

<!-- ====================================================================== -->

	<person id="Munich City-Munich City_1028">
		<plan selected="yes">
			<activity type="home" x="4473383.553004157" y="5343324.744752819" end_time="09:31:45" >
			</activity>
			<leg mode="car">
			</leg>
			<activity type="work" x="4465833.476038979" y="5343705.555337921" max_dur="08:15:34" >
			</activity>
			<leg mode="car">
			</leg>
			<activity type="home" x="4473383.553004157" y="5343324.744752819" >
			</activity>
		</plan>

	</person>

<!-- ====================================================================== -->

	<person id="Munich City-Munich City_1029">
		<plan selected="yes">
			<activity type="home" x="4477038.588155745" y="5343799.476817102" end_time="09:27:37" >
			</activity>
			<leg mode="car">
			</leg>
			<activity type="work" x="4474085.443315438" y="5326395.722812021" max_dur="08:04:16" >
			</activity>
			<leg mode="car">
			</leg>
			<activity type="home" x="4477038.588155745" y="5343799.476817102" >
			</activity>
		</plan>

	</person>

<!-- ====================================================================== -->

	<person id="Munich City-Munich City_103">
		<plan selected="yes">
			<activity type="home" x="4470664.989264587" y="5326222.798056958" end_time="09:40:09" >
			</activity>
			<leg mode="car">
			</leg>
			<activity type="work" x="4477691.9610904595" y="5344451.802303418" max_dur="08:56:50" >
			</activity>
			<leg mode="car">
			</leg>
			<activity type="home" x="4470664.989264587" y="5326222.798056958" >
			</activity>
		</plan>

	</person>

<!-- ====================================================================== -->

	<person id="Munich City-Munich City_1030">
		<plan selected="yes">
			<activity type="home" x="4454002.123954604" y="5339023.186517981" end_time="09:11:55" >
			</activity>
			<leg mode="car">
			</leg>
			<activity type="work" x="4470582.672673512" y="5342880.608078631" max_dur="08:22:01" >
			</activity>
			<leg mode="car">
			</leg>
			<activity type="home" x="4454002.123954604" y="5339023.186517981" >
			</activity>
		</plan>

	</person>

<!-- ====================================================================== -->

	<person id="Munich City-Munich City_1031">
		<plan selected="yes">
			<activity type="home" x="4478509.501556079" y="5327047.315887799" end_time="09:24:28" >
			</activity>
			<leg mode="car">
			</leg>
			<activity type="work" x="4479028.6110007325" y="5338640.13053493" max_dur="08:46:13" >
			</activity>
			<leg mode="car">
			</leg>
			<activity type="home" x="4478509.501556079" y="5327047.315887799" >
			</activity>
		</plan>

	</person>

<!-- ====================================================================== -->

	<person id="Munich City-Munich City_1032">
		<plan selected="yes">
			<activity type="home" x="4457727.866067755" y="5327437.332057109" end_time="09:15:02" >
			</activity>
			<leg mode="car">
			</leg>
			<activity type="work" x="4454305.643858764" y="5334539.3094407525" max_dur="08:18:52" >
			</activity>
			<leg mode="car">
			</leg>
			<activity type="home" x="4457727.866067755" y="5327437.332057109" >
			</activity>
		</plan>

	</person>

<!-- ====================================================================== -->

	<person id="Munich City-Munich City_1033">
		<plan selected="yes">
			<activity type="home" x="4468286.242351389" y="5345350.403096666" end_time="09:41:12" >
			</activity>
			<leg mode="car">
			</leg>
			<activity type="work" x="4454599.998433253" y="5331259.820394332" max_dur="08:01:53" >
			</activity>
			<leg mode="car">
			</leg>
			<activity type="home" x="4468286.242351389" y="5345350.403096666" >
			</activity>
		</plan>

	</person>

<!-- ====================================================================== -->

	<person id="Munich City-Munich City_1034">
		<plan selected="yes">
			<activity type="home" x="4478887.771544307" y="5336474.613435432" end_time="09:51:46" >
			</activity>
			<leg mode="car">
			</leg>
			<activity type="work" x="4473915.864584965" y="5339849.7820382295" max_dur="08:33:21" >
			</activity>
			<leg mode="car">
			</leg>
			<activity type="home" x="4478887.771544307" y="5336474.613435432" >
			</activity>
		</plan>

	</person>

<!-- ====================================================================== -->

	<person id="Munich City-Munich City_1035">
		<plan selected="yes">
			<activity type="home" x="4453651.074629944" y="5342677.025243317" end_time="09:19:48" >
			</activity>
			<leg mode="car">
			</leg>
			<activity type="work" x="4476250.03224926" y="5340928.733303064" max_dur="08:35:58" >
			</activity>
			<leg mode="car">
			</leg>
			<activity type="home" x="4453651.074629944" y="5342677.025243317" >
			</activity>
		</plan>

	</person>

<!-- ====================================================================== -->

	<person id="Munich City-Munich City_1036">
		<plan selected="yes">
			<activity type="home" x="4473483.118470137" y="5325548.704346378" end_time="09:42:51" >
			</activity>
			<leg mode="car">
			</leg>
			<activity type="work" x="4459907.188811235" y="5325441.548270098" max_dur="08:57:40" >
			</activity>
			<leg mode="car">
			</leg>
			<activity type="home" x="4473483.118470137" y="5325548.704346378" >
			</activity>
		</plan>

	</person>

<!-- ====================================================================== -->

	<person id="Munich City-Munich City_1037">
		<plan selected="yes">
			<activity type="home" x="4478821.70227756" y="5327790.327100668" end_time="09:12:43" >
			</activity>
			<leg mode="car">
			</leg>
			<activity type="work" x="4453708.661137554" y="5330234.66485097" max_dur="08:29:18" >
			</activity>
			<leg mode="car">
			</leg>
			<activity type="home" x="4478821.70227756" y="5327790.327100668" >
			</activity>
		</plan>

	</person>

<!-- ====================================================================== -->

	<person id="Munich City-Munich City_1038">
		<plan selected="yes">
			<activity type="home" x="4476569.07549953" y="5342857.822652105" end_time="09:42:18" >
			</activity>
			<leg mode="car">
			</leg>
			<activity type="work" x="4472402.168341791" y="5325080.244632182" max_dur="08:54:57" >
			</activity>
			<leg mode="car">
			</leg>
			<activity type="home" x="4476569.07549953" y="5342857.822652105" >
			</activity>
		</plan>

	</person>

<!-- ====================================================================== -->

	<person id="Munich City-Munich City_1039">
		<plan selected="yes">
			<activity type="home" x="4458311.315589484" y="5325571.95281797" end_time="09:47:43" >
			</activity>
			<leg mode="car">
			</leg>
			<activity type="work" x="4476888.077623039" y="5325220.67424063" max_dur="08:47:13" >
			</activity>
			<leg mode="car">
			</leg>
			<activity type="home" x="4458311.315589484" y="5325571.95281797" >
			</activity>
		</plan>

	</person>

<!-- ====================================================================== -->

	<person id="Munich City-Munich City_104">
		<plan selected="yes">
			<activity type="home" x="4479394.659230983" y="5338668.841063549" end_time="09:39:16" >
			</activity>
			<leg mode="car">
			</leg>
			<activity type="work" x="4455996.3603600105" y="5330299.9672992" max_dur="08:42:18" >
			</activity>
			<leg mode="car">
			</leg>
			<activity type="home" x="4479394.659230983" y="5338668.841063549" >
			</activity>
		</plan>

	</person>

<!-- ====================================================================== -->

	<person id="Munich City-Munich City_1040">
		<plan selected="yes">
			<activity type="home" x="4473437.414037293" y="5338610.997548768" end_time="09:46:52" >
			</activity>
			<leg mode="car">
			</leg>
			<activity type="work" x="4474681.689561651" y="5325687.814024644" max_dur="08:02:46" >
			</activity>
			<leg mode="car">
			</leg>
			<activity type="home" x="4473437.414037293" y="5338610.997548768" >
			</activity>
		</plan>

	</person>

<!-- ====================================================================== -->

	<person id="Munich City-Munich City_1041">
		<plan selected="yes">
			<activity type="home" x="4452622.188675597" y="5341985.432067958" end_time="09:40:51" >
			</activity>
			<leg mode="car">
			</leg>
			<activity type="work" x="4459426.368699279" y="5327107.463421844" max_dur="08:24:19" >
			</activity>
			<leg mode="car">
			</leg>
			<activity type="home" x="4452622.188675597" y="5341985.432067958" >
			</activity>
		</plan>

	</person>

<!-- ====================================================================== -->

	<person id="Munich City-Munich City_1042">
		<plan selected="yes">
			<activity type="home" x="4473371.247420632" y="5338795.206907649" end_time="09:17:40" >
			</activity>
			<leg mode="car">
			</leg>
			<activity type="work" x="4476072.541826088" y="5339002.903140455" max_dur="08:08:08" >
			</activity>
			<leg mode="car">
			</leg>
			<activity type="home" x="4473371.247420632" y="5338795.206907649" >
			</activity>
		</plan>

	</person>

<!-- ====================================================================== -->

	<person id="Munich City-Munich City_1043">
		<plan selected="yes">
			<activity type="home" x="4473401.04398168" y="5344370.817955147" end_time="09:54:22" >
			</activity>
			<leg mode="car">
			</leg>
			<activity type="work" x="4453718.965559169" y="5343554.143642559" max_dur="08:32:19" >
			</activity>
			<leg mode="car">
			</leg>
			<activity type="home" x="4473401.04398168" y="5344370.817955147" >
			</activity>
		</plan>

	</person>

<!-- ====================================================================== -->

	<person id="Munich City-Munich City_1044">
		<plan selected="yes">
			<activity type="home" x="4460229.844088667" y="5325454.773407413" end_time="09:17:29" >
			</activity>
			<leg mode="car">
			</leg>
			<activity type="work" x="4469740.607666007" y="5326751.838261724" max_dur="08:28:05" >
			</activity>
			<leg mode="car">
			</leg>
			<activity type="home" x="4460229.844088667" y="5325454.773407413" >
			</activity>
		</plan>

	</person>

<!-- ====================================================================== -->

	<person id="Munich City-Munich City_1045">
		<plan selected="yes">
			<activity type="home" x="4459215.019320092" y="5330436.021083817" end_time="09:53:19" >
			</activity>
			<leg mode="car">
			</leg>
			<activity type="work" x="4465502.524287111" y="5325832.24242727" max_dur="08:56:06" >
			</activity>
			<leg mode="car">
			</leg>
			<activity type="home" x="4459215.019320092" y="5330436.021083817" >
			</activity>
		</plan>

	</person>

<!-- ====================================================================== -->

	<person id="Munich City-Munich City_1046">
		<plan selected="yes">
			<activity type="home" x="4478433.195126077" y="5326055.262972637" end_time="09:21:03" >
			</activity>
			<leg mode="car">
			</leg>
			<activity type="work" x="4476883.198346343" y="5325275.734637571" max_dur="08:03:20" >
			</activity>
			<leg mode="car">
			</leg>
			<activity type="home" x="4478433.195126077" y="5326055.262972637" >
			</activity>
		</plan>

	</person>

<!-- ====================================================================== -->

	<person id="Munich City-Munich City_1047">
		<plan selected="yes">
			<activity type="home" x="4455109.104768264" y="5326681.163315403" end_time="09:41:20" >
			</activity>
			<leg mode="car">
			</leg>
			<activity type="work" x="4461193.839794024" y="5325270.552120046" max_dur="08:25:09" >
			</activity>
			<leg mode="car">
			</leg>
			<activity type="home" x="4455109.104768264" y="5326681.163315403" >
			</activity>
		</plan>

	</person>

<!-- ====================================================================== -->

	<person id="Munich City-Munich City_1048">
		<plan selected="yes">
			<activity type="home" x="4479067.857546782" y="5342421.734519791" end_time="09:06:41" >
			</activity>
			<leg mode="car">
			</leg>
			<activity type="work" x="4460244.312013488" y="5345647.813449831" max_dur="08:56:39" >
			</activity>
			<leg mode="car">
			</leg>
			<activity type="home" x="4479067.857546782" y="5342421.734519791" >
			</activity>
		</plan>

	</person>

<!-- ====================================================================== -->

	<person id="Munich City-Munich City_1049">
		<plan selected="yes">
			<activity type="home" x="4473712.991679858" y="5345113.569410727" end_time="09:46:07" >
			</activity>